
4 Mot inconnu : Code_Saturne => ====== Code_Saturne ====== | code_saturne

6 Mot inconnu : Code_Saturne => Code_Saturne est un logiciel généraliste de Mécanique des Fluides Numérique (CFD). C'est un logiciel libre sous licence GPL, développé par EDF. | code_saturne
6 Mot inconnu : CFD => Code_Saturne est un logiciel généraliste de Mécanique des Fluides Numérique (CFD). C'est un logiciel libre sous licence GPL, développé par EDF. | cfd

8 Mot inconnu : Code_Saturne => Code_Saturne permet de modéliser les écoulements incompressibles ou dilatables, avec ou sans turbulence ou transfert de chaleur. Des modules dédiés sont disponibles pour des physiques particulières comme le transfert de chaleur par rayonnement, la combustion (gaz, charbon pulvérisé, fioul lourd, ...), la magnéto-hydrodynamique, les écoulements compressibles, les écoulements polyphasiques (approche Euler/Lagrange avec couplage inverse), ou bien des extensions à des applications spécifiques (par exemple Mercure_Saturne pour les écoulements atmosphériques). | code_saturne
8 Une de ces ponctuations est superflue. => Code_Saturne permet de modéliser les écoulements incompressibles ou dilatables, avec ou sans turbulence ou transfert de chaleur. Des modules dédiés sont disponibles pour des physiques particulières comme le transfert de chaleur par rayonnement, la combustion (gaz, charbon pulvérisé, fioul lourd, ...), la magnéto-hydrodynamique, les écoulements compressibles, les écoulements polyphasiques (approche Euler/Lagrange avec couplage inverse), ou bien des extensions à des applications spécifiques (par exemple Mercure_Saturne pour les écoulements atmosphériques). | , . => suggestions : [',', '.']
8 Typographie : points de suspension. Utilisez le caractère dédié. => Code_Saturne permet de modéliser les écoulements incompressibles ou dilatables, avec ou sans turbulence ou transfert de chaleur. Des modules dédiés sont disponibles pour des physiques particulières comme le transfert de chaleur par rayonnement, la combustion (gaz, charbon pulvérisé, fioul lourd, ...), la magnéto-hydrodynamique, les écoulements compressibles, les écoulements polyphasiques (approche Euler/Lagrange avec couplage inverse), ou bien des extensions à des applications spécifiques (par exemple Mercure_Saturne pour les écoulements atmosphériques). | ... => suggestions : ['…']
8 Mot inconnu : Mercure_Saturne => Code_Saturne permet de modéliser les écoulements incompressibles ou dilatables, avec ou sans turbulence ou transfert de chaleur. Des modules dédiés sont disponibles pour des physiques particulières comme le transfert de chaleur par rayonnement, la combustion (gaz, charbon pulvérisé, fioul lourd, ...), la magnéto-hydrodynamique, les écoulements compressibles, les écoulements polyphasiques (approche Euler/Lagrange avec couplage inverse), ou bien des extensions à des applications spécifiques (par exemple Mercure_Saturne pour les écoulements atmosphériques). | mercure_saturne

14 Espace(s) en début de ligne à supprimer : utilisez les retraits de paragraphe (ou les tabulations à la rigueur). =>   * Disposer d'une connexion à Internet configurée et activée. |    => suggestions : ['']

22 Mot inconnu : FIXME => FIXME | fixme

26 Mot inconnu : FIXME => FIXME  | fixme
26 Espace(s) en fin de ligne à supprimer. => FIXME  |   => suggestions : ['']

34 Espace(s) en début de ligne à supprimer : utilisez les retraits de paragraphe (ou les tabulations à la rigueur). =>   * **(fr)** [[http://innovation.edf.com/recherche-et-communaute-scientifique/logiciels/code-saturne/presentation-45341.html|site EDF présentant le logiciel]] |    => suggestions : ['']

35 Espace(s) en début de ligne à supprimer : utilisez les retraits de paragraphe (ou les tabulations à la rigueur). =>   * **(en)** [[https://code-saturne.info/products/code-saturne|Site officiel]] avec, entre autres, son forum officiel. |    => suggestions : ['']

36 Espace(s) en début de ligne à supprimer : utilisez les retraits de paragraphe (ou les tabulations à la rigueur). =>   * **(en)** [[http://cfd.mace.manchester.ac.uk/twiki/bin/view/Saturne/WebHome|Twiki de l'université de Manchester]] des infos, des cas test et autres. |    => suggestions : ['']
36 Mot inconnu : Twiki =>   * **(en)** [[http://cfd.mace.manchester.ac.uk/twiki/bin/view/Saturne/WebHome|Twiki de l'université de Manchester]] des infos, des cas test et autres. | twiki

37 Espace(s) en début de ligne à supprimer : utilisez les retraits de paragraphe (ou les tabulations à la rigueur). =>   * **(fr)** [[http://caelinux.com/|Site de la distribution CAElinux]] (voir notamment [[http://caelinux.com/CMS/index.php?option=com_joomlaboard&Itemid=52&func=showcat&catid=18|son forum]]) |    => suggestions : ['']
37 Mot inconnu : CAElinux =>   * **(fr)** [[http://caelinux.com/|Site de la distribution CAElinux]] (voir notamment [[http://caelinux.com/CMS/index.php?option=com_joomlaboard&Itemid=52&func=showcat&catid=18|son forum]]) | caelinux

38 Espace(s) en début de ligne à supprimer : utilisez les retraits de paragraphe (ou les tabulations à la rigueur). =>   * **(en)** [[http://code-saturne.blogspot.com|Free your CFD.]] Blog contenant des infos sur la CFD libre et notamment des tutoriels d'installation de Code_Saturne. |    => suggestions : ['']
38 Mot inconnu : your =>   * **(en)** [[http://code-saturne.blogspot.com|Free your CFD.]] Blog contenant des infos sur la CFD libre et notamment des tutoriels d'installation de Code_Saturne. | your
38 Mot inconnu : CFD =>   * **(en)** [[http://code-saturne.blogspot.com|Free your CFD.]] Blog contenant des infos sur la CFD libre et notamment des tutoriels d'installation de Code_Saturne. | cfd
38 Mot inconnu : CFD =>   * **(en)** [[http://code-saturne.blogspot.com|Free your CFD.]] Blog contenant des infos sur la CFD libre et notamment des tutoriels d'installation de Code_Saturne. | cfd
38 Mot inconnu : Code_Saturne =>   * **(en)** [[http://code-saturne.blogspot.com|Free your CFD.]] Blog contenant des infos sur la CFD libre et notamment des tutoriels d'installation de Code_Saturne. | code_saturne
