
4 Mot inconnu : Code_Saturne [[7:19]] => ====== Code_Saturne ====== <|> code_saturne

6 Mot inconnu : Code_Saturne [[0:12]] => Code_Saturne est un logiciel généraliste de Mécanique des Fluides Numérique (CFD). C'est un logiciel libre sous licence GPL, développé par EDF. <|> code_saturne
6 Mot inconnu : CFD [[77:80]] => Code_Saturne est un logiciel généraliste de Mécanique des Fluides Numérique (CFD). C'est un logiciel libre sous licence GPL, développé par EDF. <|> cfd

8 Mot inconnu : Code_Saturne [[0:12]] => Code_Saturne permet de modéliser les écoulements incompressibles ou dilatables, avec ou sans turbulence ou transfert de chaleur. Des modules dédiés sont disponibles pour des physiques particulières comme le transfert de chaleur par rayonnement, la combustion (gaz, charbon pulvérisé, fioul lourd, ...), la magnéto-hydrodynamique, les écoulements compressibles, les écoulements polyphasiques (approche Euler/Lagrange avec couplage inverse), ou bien des extensions à des applications spécifiques (par exemple Mercure_Saturne pour les écoulements atmosphériques). <|> code_saturne
8 Une de ces ponctuations est superflue. [[295:298]] => Code_Saturne permet de modéliser les écoulements incompressibles ou dilatables, avec ou sans turbulence ou transfert de chaleur. Des modules dédiés sont disponibles pour des physiques particulières comme le transfert de chaleur par rayonnement, la combustion (gaz, charbon pulvérisé, fioul lourd, ...), la magnéto-hydrodynamique, les écoulements compressibles, les écoulements polyphasiques (approche Euler/Lagrange avec couplage inverse), ou bien des extensions à des applications spécifiques (par exemple Mercure_Saturne pour les écoulements atmosphériques). <|> , . => suggestions : [',', '.']
8 Typographie : points de suspension. Utilisez le caractère dédié. [[297:300]] => Code_Saturne permet de modéliser les écoulements incompressibles ou dilatables, avec ou sans turbulence ou transfert de chaleur. Des modules dédiés sont disponibles pour des physiques particulières comme le transfert de chaleur par rayonnement, la combustion (gaz, charbon pulvérisé, fioul lourd, ...), la magnéto-hydrodynamique, les écoulements compressibles, les écoulements polyphasiques (approche Euler/Lagrange avec couplage inverse), ou bien des extensions à des applications spécifiques (par exemple Mercure_Saturne pour les écoulements atmosphériques). <|> ... => suggestions : ['…']
8 Mot inconnu : Mercure_Saturne [[507:522]] => Code_Saturne permet de modéliser les écoulements incompressibles ou dilatables, avec ou sans turbulence ou transfert de chaleur. Des modules dédiés sont disponibles pour des physiques particulières comme le transfert de chaleur par rayonnement, la combustion (gaz, charbon pulvérisé, fioul lourd, ...), la magnéto-hydrodynamique, les écoulements compressibles, les écoulements polyphasiques (approche Euler/Lagrange avec couplage inverse), ou bien des extensions à des applications spécifiques (par exemple Mercure_Saturne pour les écoulements atmosphériques). <|> mercure_saturne

22 Mot inconnu : FIXME [[0:5]] => FIXME <|> fixme

26 Mot inconnu : FIXME [[0:5]] => FIXME  <|> fixme
26 Espace(s) en fin de ligne à supprimer. [[5:6]] => FIXME  <|>   => suggestions : ['']
36 Mot inconnu : Twiki [[79:84]] =>   * **(en)** [[http://cfd.mace.manchester.ac.uk/twiki/bin/view/Saturne/WebHome|Twiki de l'université de Manchester]] des infos, des cas test et autres. <|> twiki
37 Mot inconnu : CAElinux [[60:68]] =>   * **(fr)** [[http://caelinux.com/|Site de la distribution CAElinux]] (voir notamment [[http://caelinux.com/CMS/index.php?option=com_joomlaboard&Itemid=52&func=showcat&catid=18|son forum]]) <|> caelinux
38 Mot inconnu : your [[53:57]] =>   * **(en)** [[http://code-saturne.blogspot.com|Free your CFD.]] Blog contenant des infos sur la CFD libre et notamment des tutoriels d'installation de Code_Saturne. <|> your
38 Mot inconnu : CFD [[58:61]] =>   * **(en)** [[http://code-saturne.blogspot.com|Free your CFD.]] Blog contenant des infos sur la CFD libre et notamment des tutoriels d'installation de Code_Saturne. <|> cfd
38 Mot inconnu : CFD [[97:100]] =>   * **(en)** [[http://code-saturne.blogspot.com|Free your CFD.]] Blog contenant des infos sur la CFD libre et notamment des tutoriels d'installation de Code_Saturne. <|> cfd
38 Mot inconnu : Code_Saturne [[152:164]] =>   * **(en)** [[http://code-saturne.blogspot.com|Free your CFD.]] Blog contenant des infos sur la CFD libre et notamment des tutoriels d'installation de Code_Saturne. <|> code_saturne
