2 Mot inconnu : calcul_numérique => {{tag>Xenial calcul_numérique mécanique BROUILLON}}

5 Mot inconnu : Code_Saturne => ====== Code_Saturne ======

7 Mot inconnu : Code_Saturne => Code_Saturne est un logiciel généraliste de Mécanique des Fluides Numérique (CFD). C'est un logiciel libre sous licence GPL, développé par EDF.
7 Mot inconnu : CFD => Code_Saturne est un logiciel généraliste de Mécanique des Fluides Numérique (CFD). C'est un logiciel libre sous licence GPL, développé par EDF.

9 Mot inconnu : Code_Saturne => Code_Saturne permet de modéliser les écoulements incompressibles ou dilatables, avec ou sans turbulence ou transfert de chaleur. Des modules dédiés sont disponibles pour des physiques particulières comme le transfert de chaleur par rayonnement, la combustion (gaz, charbon pulvérisé, fioul lourd, ...), la magnéto-hydrodynamique, les écoulements compressibles, les écoulements polyphasiques (approche Euler/Lagrange avec couplage inverse), ou bien des extensions à des applications spécifiques (par exemple Mercure_Saturne pour les écoulements atmosphériques).
9 Une de ces ponctuations est superflue. => Code_Saturne permet de modéliser les écoulements incompressibles ou dilatables, avec ou sans turbulence ou transfert de chaleur. Des modules dédiés sont disponibles pour des physiques particulières comme le transfert de chaleur par rayonnement, la combustion (gaz, charbon pulvérisé, fioul lourd, ...), la magnéto-hydrodynamique, les écoulements compressibles, les écoulements polyphasiques (approche Euler/Lagrange avec couplage inverse), ou bien des extensions à des applications spécifiques (par exemple Mercure_Saturne pour les écoulements atmosphériques).
9 Typographie : points de suspension. Utilisez le caractère dédié. => Code_Saturne permet de modéliser les écoulements incompressibles ou dilatables, avec ou sans turbulence ou transfert de chaleur. Des modules dédiés sont disponibles pour des physiques particulières comme le transfert de chaleur par rayonnement, la combustion (gaz, charbon pulvérisé, fioul lourd, ...), la magnéto-hydrodynamique, les écoulements compressibles, les écoulements polyphasiques (approche Euler/Lagrange avec couplage inverse), ou bien des extensions à des applications spécifiques (par exemple Mercure_Saturne pour les écoulements atmosphériques).
9 Mot inconnu : Mercure_Saturne => Code_Saturne permet de modéliser les écoulements incompressibles ou dilatables, avec ou sans turbulence ou transfert de chaleur. Des modules dédiés sont disponibles pour des physiques particulières comme le transfert de chaleur par rayonnement, la combustion (gaz, charbon pulvérisé, fioul lourd, ...), la magnéto-hydrodynamique, les écoulements compressibles, les écoulements polyphasiques (approche Euler/Lagrange avec couplage inverse), ou bien des extensions à des applications spécifiques (par exemple Mercure_Saturne pour les écoulements atmosphériques).

14 Espace(s) en début de ligne à supprimer : utilisez les retraits de paragraphe (ou les tabulations à la rigueur). =>   * Disposer des [[:sudo|droits d'administration]].

15 Espace(s) en début de ligne à supprimer : utilisez les retraits de paragraphe (ou les tabulations à la rigueur). =>   * Disposer d'une connexion à Internet configurée et activée.

18 Il manque un espace. => [[:tutoriel:comment_installer_un_paquet|Installez les paquets]] **[[apt>code-saturne]]**.

23 Mot inconnu : FIXME => FIXME

27 Mot inconnu : FIXME => FIXME 
27 Espace(s) en fin de ligne à supprimer. => FIXME 

31 Il manque un espace. => Pour supprimer cette application, il suffit de [[:tutoriel:comment_supprimer_un_paquet|supprimer son paquet]]. Selon la méthode choisie, le configuration globale de l'application est conservée ou supprimée. Les journaux du système, et les fichiers de préférence des utilisateurs dans leurs dossiers personnels sont toujours conservés.
31 Accord de genre erroné : « configuration » est féminin. => Pour supprimer cette application, il suffit de [[:tutoriel:comment_supprimer_un_paquet|supprimer son paquet]]. Selon la méthode choisie, le configuration globale de l'application est conservée ou supprimée. Les journaux du système, et les fichiers de préférence des utilisateurs dans leurs dossiers personnels sont toujours conservés.

35 Espace(s) en début de ligne à supprimer : utilisez les retraits de paragraphe (ou les tabulations à la rigueur). =>   * **(fr)** [[http://innovation.edf.com/recherche-et-communaute-scientifique/logiciels/code-saturne/presentation-45341.html|site EDF présentant le logiciel]]

36 Espace(s) en début de ligne à supprimer : utilisez les retraits de paragraphe (ou les tabulations à la rigueur). =>   * **(en)** [[https://code-saturne.info/products/code-saturne|Site officiel]] avec, entre autres, son forum officiel.

37 Espace(s) en début de ligne à supprimer : utilisez les retraits de paragraphe (ou les tabulations à la rigueur). =>   * **(en)** [[http://cfd.mace.manchester.ac.uk/twiki/bin/view/Saturne/WebHome|Twiki de l'université de Manchester]] des infos, des cas test et autres.
37 Mot inconnu : Twiki =>   * **(en)** [[http://cfd.mace.manchester.ac.uk/twiki/bin/view/Saturne/WebHome|Twiki de l'université de Manchester]] des infos, des cas test et autres.

38 Espace(s) en début de ligne à supprimer : utilisez les retraits de paragraphe (ou les tabulations à la rigueur). =>   * **(fr)** [[http://caelinux.com/|Site de la distribution CAElinux]] (voir notamment [[http://caelinux.com/CMS/index.php?option=com_joomlaboard&Itemid=52&func=showcat&catid=18|son forum]])
38 Mot inconnu : CAElinux =>   * **(fr)** [[http://caelinux.com/|Site de la distribution CAElinux]] (voir notamment [[http://caelinux.com/CMS/index.php?option=com_joomlaboard&Itemid=52&func=showcat&catid=18|son forum]])

39 Espace(s) en début de ligne à supprimer : utilisez les retraits de paragraphe (ou les tabulations à la rigueur). =>   * **(en)** [[http://code-saturne.blogspot.com|Free your CFD.]] Blog contenant des infos sur la CFD libre et notamment des tutoriels d'installation de Code_Saturne.
39 Mot inconnu : your =>   * **(en)** [[http://code-saturne.blogspot.com|Free your CFD.]] Blog contenant des infos sur la CFD libre et notamment des tutoriels d'installation de Code_Saturne.
39 Mot inconnu : CFD =>   * **(en)** [[http://code-saturne.blogspot.com|Free your CFD.]] Blog contenant des infos sur la CFD libre et notamment des tutoriels d'installation de Code_Saturne.
39 Mot inconnu : CFD =>   * **(en)** [[http://code-saturne.blogspot.com|Free your CFD.]] Blog contenant des infos sur la CFD libre et notamment des tutoriels d'installation de Code_Saturne.
39 Mot inconnu : Code_Saturne =>   * **(en)** [[http://code-saturne.blogspot.com|Free your CFD.]] Blog contenant des infos sur la CFD libre et notamment des tutoriels d'installation de Code_Saturne.

43 Il manque un espace insécable. => //Contributeurs principaux : [[:utilisateurs:YannUbuntu]], [[:utilisateurs:ZondeR]].//
43 Il manque un espace. => //Contributeurs principaux : [[:utilisateurs:YannUbuntu]], [[:utilisateurs:ZondeR]].//
43 Il manque un espace. => //Contributeurs principaux : [[:utilisateurs:YannUbuntu]], [[:utilisateurs:ZondeR]].//
