
{{tag>Xenial calcul_numérique mécanique BROUILLON}}
----
{{ http://innovation.edf.com/fichiers/fckeditor/Commun/Innovation/logiciels/logocs_petit.jpg}}
====== Code_Saturne ======

Code_Saturne est un logiciel généraliste de Mécanique des Fluides Numérique (CFD). C'est un logiciel libre sous licence GPL, développé par EDF.

Code_Saturne permet de modéliser les écoulements incompressibles ou dilatables, avec ou sans turbulence ou transfert de chaleur. Des modules dédiés sont disponibles pour des physiques particulières comme le transfert de chaleur par rayonnement, la combustion (gaz, charbon pulvérisé, fioul lourd, ...), la magnéto-hydrodynamique, les écoulements compressibles, les écoulements polyphasiques (approche Euler/Lagrange avec couplage inverse), ou bien des extensions à des applications spécifiques (par exemple Mercure_Saturne pour les écoulements atmosphériques).


===== Pré-requis =====

  * Disposer des [[:sudo|droits d'administration]].
  * Disposer d'une connexion à Internet configurée et activée.

===== Installation =====
[[:tutoriel:comment_installer_un_paquet|Installez les paquets]] **[[apt>code-saturne]]**.


===== Configuration =====

FIXME

===== Utilisation=====

FIXME 

===== Désinstallation =====

Pour supprimer cette application, il suffit de [[:tutoriel:comment_supprimer_un_paquet|supprimer son paquet]]. Selon la méthode choisie, le configuration globale de l'application est conservée ou supprimée. Les journaux du système, et les fichiers de préférence des utilisateurs dans leurs dossiers personnels sont toujours conservés.

===== Voir aussi =====

  * **(fr)** [[http://innovation.edf.com/recherche-et-communaute-scientifique/logiciels/code-saturne/presentation-45341.html|site EDF présentant le logiciel]]
  * **(en)** [[https://code-saturne.info/products/code-saturne|Site officiel]] avec, entre autres, son forum officiel.
  * **(en)** [[http://cfd.mace.manchester.ac.uk/twiki/bin/view/Saturne/WebHome|Twiki de l'université de Manchester]] des infos, des cas test et autres.
  * **(fr)** [[http://caelinux.com/|Site de la distribution CAElinux]] (voir notamment [[http://caelinux.com/CMS/index.php?option=com_joomlaboard&Itemid=52&func=showcat&catid=18|son forum]])
  * **(en)** [[http://code-saturne.blogspot.com|Free your CFD.]] Blog contenant des infos sur la CFD libre et notamment des tutoriels d'installation de Code_Saturne.


----
//Contributeurs principaux : [[:utilisateurs:YannUbuntu]], [[:utilisateurs:ZondeR]].//
